Global frequency set at 1000000000000 ticks per second
src/mem/dram_interface.cc:690: warn: DRAM device capacity (8192 Mbytes) does not match the address range assigned (512 Mbytes)
src/arch/riscv/isa.cc:321: info: RVV enabled, VLEN = 256 bits, ELEN = 64 bits
src/base/statistics.hh:279: warn: One of the stats is a legacy stat. Legacy stat is a stat that does not belong to any statistics::Group. Legacy stat is deprecated.
src/base/remote_gdb.cc:418: warn: Sockets disabled, not accepting gdb connections
gem5 Simulator System.  https://www.gem5.org
gem5 is copyrighted software; use the --copyright option for details.

gem5 version 25.1.0.0
gem5 compiled Mar 27 2026 06:32:36
gem5 started Mar 28 2026 11:11:07
gem5 executing on wc, pid 14150
command line: /home/wincode/gem5/build/RISCV/gem5.opt --listener-mode=off --outdir=/home/wincode/nn_cache_project/results/direct gem5_food_config.py --assoc=1

=== gem5 config: assoc=1, L1=32KiB, L2=256KiB ===
=== workload: /home/wincode/nn_cache_project/matmul_food ===
Starting simulation...
src/sim/syscall_emul.cc:97: warn: ignoring syscall set_robust_list(...)
      (further warnings will be suppressed)
src/sim/syscall_emul.hh:1127: warn: readlink() called on '/proc/self/exe' may yield unexpected results in various settings.
      Returning '/home/wincode/nn_cache_project/matmul_food'
src/sim/mem_state.cc:443: info: Increasing stack size by one page.
src/sim/syscall_emul.cc:86: warn: ignoring syscall mprotect(...)
=== Neural-Network Matmul on Pizza/Steak/Sushi ===
Loading feature matrix X (24 x 3072)...
Loading weight matrix W (3072 x 3)...
Running matrix multiply C = X @ W ...

First 5 predictions:
  Image  0 -> logits [0.9488, -0.9558, 0.4435] -> pred=pizza actual=pizza
  Image  1 -> logits [-0.0695, 0.2887, 0.5009] -> pred=sushi actual=steak
  Image  2 -> logits [0.9462, 0.2924, 0.0033] -> pred=pizza actual=sushi
  Image  3 -> logits [0.4180, 0.5165, 0.4948] -> pred=steak actual=pizza
  Image  4 -> logits [0.6142, 0.2471, 0.0257] -> pred=pizza actual=steak

Subset accuracy on GEM5 batch: 50.00% (12/24)

C[0][0] = 0.948775 (sanity check)
Matrix multiply done!
Simulation done: exiting with last active thread context
Ticks: 28134649000
